REMARK  4 active torsions:
REMARK  status: ('A' for Active; 'I' for Inactive)
REMARK    1  A    between atoms: C_3  and  C_4 
REMARK    2  A    between atoms: C_4  and  C_5 
REMARK    3  A    between atoms: C_5  and  N_25 
REMARK    4  A    between atoms: C_8  and  C_11 
ROOT
HETATM    1  C   UNL     1      13.180  -0.137  58.768  1.00  0.00     0.235 C 
HETATM    2  C   UNL     1      14.272   0.528  57.906  1.00  0.00     0.038 C 
HETATM    3  C   UNL     1      15.671  -0.019  58.276  1.00  0.00     0.044 C 
HETATM    4  C   UNL     1      15.943   0.328  59.749  1.00  0.00     0.038 C 
HETATM    5  C   UNL     1      14.924  -0.372  60.657  1.00  0.00     0.235 C 
HETATM    6  N   UNL     1      13.490   0.069  60.274  1.00  0.00    -0.071 N 
HETATM    7  H   UNL     1      13.413   1.063  60.479  1.00  0.00     0.279 HD
ENDROOT
BRANCH   6   8
HETATM    8  C   UNL     1      12.507  -0.703  61.188  1.00  0.00     0.239 C 
BRANCH   8   9
HETATM    9  C   UNL     1      11.060  -0.177  61.110  1.00  0.00     0.074 C 
BRANCH   9  10
HETATM   10  C   UNL     1      10.119  -1.026  61.976  1.00  0.00     0.036 A 
HETATM   11  C   UNL     1       9.692  -0.689  63.223  1.00  0.00     0.044 A 
HETATM   12  C   UNL     1      10.099   0.552  64.006  1.00  0.00     0.071 C 
HETATM   13  N   UNL     1       8.892  -1.501  63.973  1.00  0.00    -0.239 NA
HETATM   14  C   UNL     1       8.539  -2.660  63.533  1.00  0.00     0.109 A 
HETATM   15  C   UNL     1       7.679  -3.562  64.433  1.00  0.00     0.079 C 
HETATM   16  N   UNL     1       8.908  -3.083  62.251  1.00  0.00    -0.302 N 
HETATM   17  C   UNL     1       7.598  -5.019  63.942  1.00  0.00     0.009 C 
HETATM   18  C   UNL     1       7.347  -5.067  62.438  1.00  0.00     0.021 C 
HETATM   19  C   UNL     1       8.508  -4.403  61.677  1.00  0.00     0.133 C 
HETATM   20  C   UNL     1       9.672  -2.302  61.404  1.00  0.00     0.257 A 
HETATM   21  O   UNL     1       9.986  -2.637  60.257  1.00  0.00    -0.267 OA
ENDBRANCH   9  10
ENDBRANCH   8   9
ENDBRANCH   6   8
BRANCH   3  22
HETATM   22  C   UNL     1      16.814   0.445  57.386  1.00  0.00     0.079 A 
HETATM   23  C   UNL     1      18.147  -0.067  57.367  1.00  0.00     0.027 A 
HETATM   24  C   UNL     1      18.794   0.729  56.413  1.00  0.00     0.116 A 
HETATM   25  C   UNL     1      18.877  -1.074  58.022  1.00  0.00     0.019 A 
HETATM   26  C   UNL     1      20.136   0.569  56.071  1.00  0.00     0.082 A 
HETATM   27  O   UNL     1      17.924   1.643  55.907  1.00  0.00    -0.212 OA
HETATM   28  C   UNL     1      20.832  -0.456  56.710  1.00  0.00     0.119 A 
HETATM   29  C   UNL     1      20.218  -1.258  57.674  1.00  0.00     0.043 A 
HETATM   30  F   UNL     1      22.121  -0.677  56.381  1.00  0.00    -0.206 F 
HETATM   31  N   UNL     1      16.684   1.428  56.519  1.00  0.00    -0.131 NA
ENDBRANCH   3  22
TORSDOF 4
